%RWF=/tmp,10GB
%Nosave
%Chk=ethanol_hf_opt.chk
%Mem=8000MB
%Nproc=8
#opt=(maxcycle=400) HF/6-31G* MaxDisk=10GB

Ethanol first optimisation 

0  1
C           1.00548        -0.00068         0.00431
C           2.52013         0.00158         0.00124
O           3.00440         1.33661         0.01174
H           0.61753        -1.02241         0.01111
H           0.61669         0.51848        -0.87737
H           0.62211         0.53003         0.88135
H           2.91217        -0.50714        -0.88547
H           2.90599        -0.50836         0.88953
H           2.66573         1.77707        -0.78589

